*Heading
** Job name: plytka Model name: Model-1
** Generated by: Abaqus/CAE 6.14-3
*Preprint, echo=NO, model=NO, history=NO, contact=NO
**
** PARTS
**
*Part, name=Part-1
*Node
      1,  0.827558756,  0.300000012,           0.
      2,  0.828663707,  0.102931574,           0.
      3,   0.82762152,           0.,           0.
      4,   1.20000005,           0.,           0.
      5,   1.20000005,  0.300000012,           0.
      6,  0.696762085,  0.124759093,           0.
      7,  0.599298298,  0.300000012,           0.
      8,  0.599322796,  0.249997705,           0.
      9,  0.600000024, 0.0500000007,           0.
     10,  0.600051224,           0.,           0.
     11,  0.372162938,  0.198990688,           0.
     12,  0.503196955,  0.175083354,           0.
     13,  0.371542692,  0.300000012,           0.
     14,  0.372563601,           0.,           0.
     15,           0.,  0.300000012,           0.
     16,           0.,           0.,           0.
     17,  0.825102985,  0.256133378,           0.
     18,  0.827776551,  0.217454344,           0.
     19,  0.829487383,   0.18151322,           0.
     20,  0.829647124,  0.144547969,           0.
** ... 190 like lines cut
*Element, type=S4R
  1,   1,  17, 113,  39
  2,  17,  18, 114, 113
  3,  18,  19, 115, 114
  4,  19,  20, 116, 115
  5,  20,   2, 117, 116
  6,   2,  21, 118, 117
  7,  21,   3,  22, 118
  8,  39, 113, 119,  38
  9, 113, 114, 120, 119
 10, 114, 115, 121, 120
 11, 115, 116, 122, 121
 12, 116, 117, 123, 122
 13, 117, 118, 124, 123
 14, 118,  22,  23, 124
 15,  38, 119, 125,  37
 16, 119, 120, 126, 125
 17, 120, 121, 127, 126
 18, 121, 122, 128, 127
 19, 122, 123, 129, 128
 20, 123, 124, 130, 129
** ... 142 like lines cut
*Nset, nset=_PickedSet2, internal, generate
   1,  210,    1
*Elset, elset=_PickedSet2, internal, generate
   1,  162,    1
** Section: Section-1
*Shell Section, elset=_PickedSet2, material=stal
0.2, 5
*End Part
**  
**
** ASSEMBLY
**
*Assembly, name=Assembly
**  
*Instance, name=Part-1-1, part=Part-1
*End Instance
**  
*Nset, nset=_PickedSet5, internal, instance=Part-1-1
  4,  5, 28, 29, 30, 31, 32, 33
*Elset, elset=_PickedSet5, internal, instance=Part-1-1, generate
 43,  49,   1
*Elset, elset=__PickedSurf4_E3, internal, instance=Part-1-1, generate
 156,  162,    1
*Surface, type=ELEMENT, name=_PickedSurf4, internal
__PickedSurf4_E3, E3
*End Assembly
** 
** MATERIALS
** 
*Material, name=stal
*Density
7850.,
*Elastic
 2e+11, 0.3
** ----------------------------------------------------------------
** 
** STEP: statyka
** 
*Step, name=statyka, nlgeom=NO
*Static
1., 1., 1e-05, 1.
** 
** BOUNDARY CONDITIONS
** 
** Name: BC-1 Type: Symmetry/Antisymmetry/Encastre
*Boundary
_PickedSet5, ENCASTRE
** 
** LOADS
** 
** Name: Load-1   Type: Shell edge load
*Dsload, constant resultant=YES
_PickedSurf4, EDNOR, -1e+07
** 
** OUTPUT REQUESTS
** 
*Restart, write, frequency=0
** 
** FIELD OUTPUT: F-Output-1
** 
*Output, field, variable=PRESELECT
** 
** HISTORY OUTPUT: H-Output-1
** 
*Output, history, variable=PRESELECT
*End Step
