*Heading
** Job name: plyta+rama Model name: plyta+rama
** Generated by: Abaqus/CAE 6.14-3
*Preprint, echo=NO, model=NO, history=NO, contact=NO
**
** PARTS
**
*Part, name=Part-1
*End Part
**  
*Part, name=Part-4
*Node
      1,           0.,           3.,          -2.
      2,           0.,           3.,           0.
      3,           0.,           0.,           0.
      4,           3.,           0.,           0.
      5,           3.,           0.,          -2.
      6,           3.,           3.,           0.
      7,           0.,           0.,          -2.
      8,           3.,           3.,          -2.
      9,           0.,           3.,  -1.71428573
     10,           0.,           3.,  -1.42857146
     11,           0.,           3.,  -1.14285719
     12,           0.,           3., -0.857142866
     13,           0.,           3., -0.571428597
     14,           0.,           3., -0.285714298
     15,           0.,  0.300000012,           0.
     16,           0.,  0.600000024,           0.
     17,           0.,  0.899999976,           0.
     18,           0.,   1.20000005,           0.
     19,           0.,          1.5,           0.
     20,           0.,   1.79999995,           0.
** ... 48 like lines cut
*Element, type=B31
1,  1,  9
2,  9, 10
3, 10, 11
4, 11, 12
5, 12, 13
6, 13, 14
7, 14,  2
 8,  3, 15
 9, 15, 16
10, 16, 17
11, 17, 18
12, 18, 19
13, 19, 20
14, 20, 21
15, 21, 22
16, 22, 23
17, 23,  2
18,  4, 24
19, 24, 25
20, 25, 26
** ... 48 like lines cut
*Nset, nset=_PickedSet2_#2, internal
  2,  3,  4,  6, 15, 16, 17, 18, 19, 20, 21, 22, 23, 24, 25, 26
 27, 28, 29, 30, 31, 32, 39, 40, 41, 42, 43, 44, 45, 46, 47, 54
 55, 56, 57, 58, 59, 60, 61, 62
*Elset, elset=_PickedSet2_#2, internal
  8,  9, 10, 11, 12, 13, 14, 15, 16, 17, 18, 19, 20, 21, 22, 23
 24, 25, 26, 27, 35, 36, 37, 38, 39, 40, 41, 42, 43, 44, 52, 53
 54, 55, 56, 57, 58, 59, 60, 61
*Nset, nset=_PickedSet2_#3, internal
  1,  2,  3,  4,  5,  6,  7,  8,  9, 10, 11, 12, 13, 14, 33, 34
 35, 36, 37, 38, 48, 49, 50, 51, 52, 53, 63, 64, 65, 66, 67, 68
*Elset, elset=_PickedSet2_#3, internal
  1,  2,  3,  4,  5,  6,  7, 28, 29, 30, 31, 32, 33, 34, 45, 46
 47, 48, 49, 50, 51, 62, 63, 64, 65, 66, 67, 68
*Nset, nset=_PickedSet3_#4, internal
  1,  2,  3,  4,  5,  6,  7,  8,  9, 10, 11, 12, 13, 14, 33, 34
 35, 36, 37, 38, 48, 49, 50, 51, 52, 53, 63, 64, 65, 66, 67, 68
*Elset, elset=_PickedSet3_#4, internal
  1,  2,  3,  4,  5,  6,  7, 28, 29, 30, 31, 32, 33, 34, 45, 46
 47, 48, 49, 50, 51, 62, 63, 64, 65, 66, 67, 68
*Nset, nset=Set-1
  2,  3,  4,  6, 15, 16, 17, 18, 19, 20, 21, 22, 23, 24, 25, 26
 27, 28, 29, 30, 31, 32, 39, 40, 41, 42, 43, 44, 45, 46, 47, 54
 55, 56, 57, 58, 59, 60, 61, 62
*Elset, elset=Set-1
  8,  9, 10, 11, 12, 13, 14, 15, 16, 17, 18, 19, 20, 21, 22, 23
 24, 25, 26, 27, 35, 36, 37, 38, 39, 40, 41, 42, 43, 44, 52, 53
 54, 55, 56, 57, 58, 59, 60, 61
** Section: Section-1  Profile: Profile-1
*Beam Section, elset=_PickedSet2_#3, material=beton, temperature=GRADIENTS, section=CIRC
0.2
0.,10.,-1.
** Section: Section-1  Profile: Profile-1
*Beam Section, elset=_PickedSet2_#2, material=beton, temperature=GRADIENTS, section=CIRC
0.2
0.,10.,-1.
*End Part
**  
**
** ASSEMBLY
**
*Assembly, name=Assembly
**  
*Instance, name=Part-1-1, part=Part-1
*Node
      1,           0.,           0.,           0.
      2,  0.300000012,           0.,           0.
      3,  0.600000024,           0.,           0.
      4,  0.899999976,           0.,           0.
      5,   1.20000005,           0.,           0.
      6,          1.5,           0.,           0.
      7,   1.79999995,           0.,           0.
      8,    2.0999999,           0.,           0.
      9,    2.4000001,           0.,           0.
     10,   2.70000005,           0.,           0.
     11,           3.,           0.,           0.
     12,           0.,  0.300000012,           0.
     13,  0.300000012,  0.300000012,           0.
     14,  0.600000024,  0.300000012,           0.
     15,  0.899999976,  0.300000012,           0.
     16,   1.20000005,  0.300000012,           0.
     17,          1.5,  0.300000012,           0.
     18,   1.79999995,  0.300000012,           0.
     19,    2.0999999,  0.300000012,           0.
     20,    2.4000001,  0.300000012,           0.
** ... 101 like lines cut
*Element, type=S4R
  1,   1,   2,  13,  12
  2,   2,   3,  14,  13
  3,   3,   4,  15,  14
  4,   4,   5,  16,  15
  5,   5,   6,  17,  16
  6,   6,   7,  18,  17
  7,   7,   8,  19,  18
  8,   8,   9,  20,  19
  9,   9,  10,  21,  20
 10,  10,  11,  22,  21
 11,  12,  13,  24,  23
 12,  13,  14,  25,  24
 13,  14,  15,  26,  25
 14,  15,  16,  27,  26
 15,  16,  17,  28,  27
 16,  17,  18,  29,  28
 17,  18,  19,  30,  29
 18,  19,  20,  31,  30
 19,  20,  21,  32,  31
 20,  21,  22,  33,  32
** ... 80 like lines cut
*Nset, nset=_PickedSet2, internal, generate
   1,  121,    1
*Elset, elset=_PickedSet2, internal, generate
   1,  100,    1
*Nset, nset=Set-1
   1,   2,   3,   4,   5,   6,   7,   8,   9,  10,  11,  12,  22,  23,  33,  34
  44,  45,  55,  56,  66,  67,  77,  78,  88,  89,  99, 100, 110, 111, 112, 113
 114, 115, 116, 117, 118, 119, 120, 121
*Elset, elset=Set-1
   1,   2,   3,   4,   5,   6,   7,   8,   9,  10,  11,  20,  21,  30,  31,  40
  41,  50,  51,  60,  61,  70,  71,  80,  81,  90,  91,  92,  93,  94,  95,  96
  97,  98,  99, 100
** Section: Section-2
*Shell Section, elset=_PickedSet2, material=beton
0.2, 5
*End Instance
**  
*Instance, name=Part-4-1, part=Part-4
*End Instance
**  
*Nset, nset=_PickedSet17, internal, instance=Part-4-1
 1, 5, 7, 8
*Surface, type=NODE, name=Part-4-1_Set-1_CNS_, internal
Part-4-1.Set-1, 1.
*Surface, type=NODE, name=Part-1-1_Set-1_CNS_, internal
Part-1-1.Set-1, 1.
** Constraint: Constraint-1
*Tie, name=Constraint-1, adjust=yes, position tolerance=0.05
Part-1-1_Set-1_CNS_, Part-4-1_Set-1_CNS_
*End Assembly
** 
** MATERIALS
** 
*Material, name=beton
*Density
2500.,
*Elastic
 3e+10, 0.2
** 
** BOUNDARY CONDITIONS
** 
** Name: BC-1 Type: Symmetry/Antisymmetry/Encastre
*Boundary
_PickedSet17, ENCASTRE
** ----------------------------------------------------------------
** 
** STEP: Step-1
** 
*Step, name=Step-1, nlgeom=NO, perturbation
*Frequency, eigensolver=Lanczos, acoustic coupling=on, normalization=displacement
10, , , , , 
** 
** OUTPUT REQUESTS
** 
*Restart, write, frequency=0
** 
** FIELD OUTPUT: F-Output-1
** 
*Output, field, variable=PRESELECT
*End Step
